Version 4
SHEET 1 1208 680
WIRE 288 -160 288 -192
WIRE 288 -160 80 -160
WIRE 80 -144 80 -160
WIRE 288 -96 288 -160
WIRE 80 -48 80 -64
WIRE 224 -48 80 -48
WIRE 80 -16 80 -48
WIRE 80 80 80 48
WIRE 80 80 -64 80
WIRE 288 80 288 0
WIRE 496 80 288 80
WIRE 80 112 80 80
WIRE 496 144 496 80
WIRE 288 160 288 80
WIRE 80 208 80 176
WIRE 224 208 80 208
WIRE 80 240 80 208
WIRE 496 288 496 224
WIRE 80 352 80 320
WIRE 288 352 288 256
WIRE 288 352 80 352
WIRE 288 384 288 352
FLAG 496 288 0
FLAG -432 32 0
FLAG -288 32 0
FLAG -432 192 0
FLAG -432 -48 +Vcc
FLAG -288 -48 -Vcc
FLAG -432 112 Vin
FLAG 288 384 -Vcc
FLAG 288 -192 +Vcc
FLAG -64 80 Vin
FLAG 496 80 Vout
SYMBOL pnp 224 256 M180
SYMATTR InstName Q1
SYMATTR Value 2N2907
SYMBOL npn 224 -96 R0
SYMATTR InstName Q2
SYMATTR Value 2N2222
SYMBOL res 480 128 R0
SYMATTR InstName RL
SYMATTR Value 32
SYMBOL voltage -432 -64 R0
WINDOW 123 0 0 Left 0
WINDOW 39 0 0 Left 0
SYMATTR InstName Vcc
SYMATTR Value 15V
SYMBOL voltage -288 -64 R0
WINDOW 123 0 0 Left 0
WINDOW 39 0 0 Left 0
SYMATTR InstName Vcc2
SYMATTR Value -15V
SYMBOL voltage -432 96 R0
WINDOW 123 0 0 Left 0
WINDOW 39 0 0 Left 0
SYMATTR InstName Vsig
SYMATTR Value SINE(0 1 1k)
SYMBOL res 64 -160 R0
SYMATTR InstName R1
SYMATTR Value 1k
SYMBOL res 64 224 R0
SYMATTR InstName R2
SYMATTR Value 1k
SYMBOL diode 64 -16 R0
SYMATTR InstName D1
SYMATTR Value 1N914
SYMBOL diode 64 112 R0
SYMATTR InstName D2
SYMATTR Value 1N914
TEXT -448 320 Left 2 !.tran 0 1ms 0 0.01ms
